SIMULATION
  SIMULATION_TYPE SUBSURFACE
  PROCESS_MODELS
    SUBSURFACE_FLOW flow
      MODE SCO2
      OPTIONS
        FIXED_TEMPERATURE_GRADIENT
        NO_STATE_TRANSITION_OUTPUT
      /
    /
    WELL_MODEL well1
      TYPE HYDROSTATIC
    END
  /
END

SUBSURFACE

NUMERICAL_METHODS flow

  NEWTON_SOLVER
    USE_INFINITY_NORM_CONVERGENCE
    NUMERICAL_JACOBIAN
    MINIMUM_NEWTON_ITERATIONS 2
  END

  LINEAR_SOLVER
    SOLVER DIRECT
  END

  TIMESTEPPER FLOW
    TIMESTEP_MAXIMUM_GROWTH_FACTOR 1.25
  END

END

WELLBORE_MODEL well1
  WELL_GRID
    NUMBER_OF_SEGMENTS 80
    WELL_TRAJECTORY
      SURFACE_ORIGIN 0.d0 0.d0 -965.9112d0
      SEGMENT_DXYZ CASED 0.d0 0.d0 -15.04d0
      SEGMENT_DXYZ SCREENED 0.d0 0.d0 -176.9838d0
    /
  /

  WELL
    DIAMETER 0.2286
    FRICTION_COEFFICIENT 1.d0
    WELL_INDEX_MODEL PEACEMAN_3D
    SKIN_FACTOR 0.d0
  /

  USE_WELL_COUPLER

  FRACTURE_PRESSURE 16.3991802d6

END

WELL_MODEL_OUTPUT
  WELL_LIQ_PRESSURE
  WELL_GAS_PRESSURE
  WELL_LIQ_Q
  WELL_GAS_Q
/


#=========================== discretization ===================================
GRID
  TYPE STRUCTURED CYLINDRICAL
  ORIGIN 0.0d0 0.d0 -1157.935
  NXYZ 20 1 25
  DXYZ
    5.15874 \
    6.70684968 \
    8.71862112 \
    11.3342014 \
    14.7344892 \
    19.1548207 \
    24.9012456 \
    32.3716498 \
    42.0831569 \
    54.7080643 \
    71.120508 \
    92.4566299 \
    120.193643 \
    156.251758 \
    203.127254 \
    264.065431 \
    343.285084 \
    446.270604 \
    580.151748 \
    551.2055014
    1@1.d0
    24.9936 \
    18.28800 \
    9.14400 \
    11.8872 \
    11.8872 \
    9.4488 \
    7.0104 \
    7.3152 \
    6.7056 \
    6.7056 \
    7.0104 \
    6.4008 \
    8.5344 \
    6.09600 \
    3.9624 \
    2.1336 \
    7.9248 \
    3.6576 \
    3.04800 \
    1.2192 \
    4.2672 \
    3.04800 \
    3.04800 \
    3.04800 \
    15.24
  /
END

#=========================== fluid properties =================================
FLUID_PROPERTY
  PHASE LIQUID
  DIFFUSION_COEFFICIENT 2.d-9
END

FLUID_PROPERTY
  PHASE GAS
  DIFFUSION_COEFFICIENT 2.d-5
END

#=========================== more fluid properties ============================
EOS WATER
  DENSITY IF97
  ENTHALPY IF97
  STEAM_DENSITY IF97
  STEAM_ENTHALPY IF97
  SATURATION_PRESSURE IF97
END

EOS GAS
  CO2_DATABASE ../../co2_sw.dat
  HENRYS_CONSTANT DEFAULT
END


#=========================== material properties ==============================
MATERIAL_PROPERTY caprock
  ID 1
  CHARACTERISTIC_CURVES caprock
  POROSITY 0.07
  TORTUOSITY 1.d0
  ROCK_DENSITY 2650.d0
  THERMAL_CONDUCTIVITY_DRY 2.d0
  THERMAL_CONDUCTIVITY_WET 2.18d0
  HEAT_CAPACITY 1000 J/kg-C
  PERMEABILITY
    PERM_ISO 5.6254628e-20
  /
  SOIL_COMPRESSIBILITY_FUNCTION LINEAR
  POROSITY_COMPRESSIBILITY 1.07618e-13
  SOIL_REFERENCE_PRESSURE 1.2d7
END

MATERIAL_PROPERTY Reservoir24
  ID 2
  CHARACTERISTIC_CURVES Reservoir24
  POROSITY 0.13
  TORTUOSITY 1.d0
  ROCK_DENSITY 2650.d0
  THERMAL_CONDUCTIVITY_DRY 2.d0
  THERMAL_CONDUCTIVITY_WET 2.18d0
  HEAT_CAPACITY 1000 J/kg-C
  PERMEABILITY
    PERM_ISO 1.9146312e-14
  /
  SOIL_COMPRESSIBILITY_FUNCTION LINEAR
  POROSITY_COMPRESSIBILITY 5.3809001e-14
  SOIL_REFERENCE_PRESSURE 1.2d7
END

MATERIAL_PROPERTY Reservoir23
  ID 3
  CHARACTERISTIC_CURVES Reservoir23
  POROSITY 0.18
  TORTUOSITY 1.d0
  ROCK_DENSITY 2650.d0
  THERMAL_CONDUCTIVITY_DRY 2.d0
  THERMAL_CONDUCTIVITY_WET 2.18d0
  HEAT_CAPACITY 1000 J/kg-C
  PERMEABILITY
    PERM_ISO 1.7271158e-13
  /
  SOIL_COMPRESSIBILITY_FUNCTION LINEAR
  POROSITY_COMPRESSIBILITY 5.3809001e-14
  SOIL_REFERENCE_PRESSURE 1.2d7
END

MATERIAL_PROPERTY Reservoir22
  ID 4
  CHARACTERISTIC_CURVES Reservoir22
  POROSITY 0.09
  TORTUOSITY 1.d0
  ROCK_DENSITY 2650.d0
  THERMAL_CONDUCTIVITY_DRY 2.d0
  THERMAL_CONDUCTIVITY_WET 2.18d0
  HEAT_CAPACITY 1000 J/kg-C
  PERMEABILITY
    PERM_X 1.7468542e-15
    PERM_Y 1.7468542e-15
    PERM_Z 1.7468542e-16
  /
  SOIL_COMPRESSIBILITY_FUNCTION LINEAR
  POROSITY_COMPRESSIBILITY 5.3809001e-14
  SOIL_REFERENCE_PRESSURE 1.2d7
END

MATERIAL_PROPERTY Reservoir21
  ID 5
  CHARACTERISTIC_CURVES Reservoir21
  POROSITY 0.10
  TORTUOSITY 1.d0
  ROCK_DENSITY 2650.d0
  THERMAL_CONDUCTIVITY_DRY 2.d0
  THERMAL_CONDUCTIVITY_WET 2.18d0
  HEAT_CAPACITY 1000 J/kg-C
  PERMEABILITY
    PERM_ISO 4.658278e-15
  /
  SOIL_COMPRESSIBILITY_FUNCTION LINEAR
  POROSITY_COMPRESSIBILITY 5.3809001e-14
  SOIL_REFERENCE_PRESSURE 1.2d7
END

MATERIAL_PROPERTY Reservoir20
  ID 6
  CHARACTERISTIC_CURVES Reservoir20
  POROSITY 0.08
  TORTUOSITY 1.d0
  ROCK_DENSITY 2650.d0
  THERMAL_CONDUCTIVITY_DRY 2.d0
  THERMAL_CONDUCTIVITY_WET 2.18d0
  HEAT_CAPACITY 1000 J/kg-C
  PERMEABILITY
    PERM_X 7.0268939e-16
    PERM_Y 7.0268939e-16
    PERM_Z 7.0268939e-17
  /
  SOIL_COMPRESSIBILITY_FUNCTION LINEAR
  POROSITY_COMPRESSIBILITY 5.3809001e-14
  SOIL_REFERENCE_PRESSURE 1.2d7
END

MATERIAL_PROPERTY Reservoir19
  ID 7
  CHARACTERISTIC_CURVES Reservoir19
  POROSITY 0.11
  TORTUOSITY 1.d0
  ROCK_DENSITY 2650.d0
  THERMAL_CONDUCTIVITY_DRY 2.d0
  THERMAL_CONDUCTIVITY_WET 2.18d0
  HEAT_CAPACITY 1000 J/kg-C
  PERMEABILITY
    PERM_ISO 1.5297311e-14
  /
  SOIL_COMPRESSIBILITY_FUNCTION LINEAR
  POROSITY_COMPRESSIBILITY 5.3809001e-14
  SOIL_REFERENCE_PRESSURE 1.2d7
END

MATERIAL_PROPERTY Reservoir18
  ID 8
  CHARACTERISTIC_CURVES Reservoir18
  POROSITY 0.09
  TORTUOSITY 1.d0
  ROCK_DENSITY 2650.d0
  THERMAL_CONDUCTIVITY_DRY 2.d0
  THERMAL_CONDUCTIVITY_WET 2.18d0
  HEAT_CAPACITY 1000 J/kg-C
  PERMEABILITY
    PERM_X 2.7140391e-16
    PERM_Y 2.7140391e-16
    PERM_Z 2.7140391e-17
  /
  SOIL_COMPRESSIBILITY_FUNCTION LINEAR
  POROSITY_COMPRESSIBILITY 5.3809001e-14
  SOIL_REFERENCE_PRESSURE 1.2d7
END

MATERIAL_PROPERTY Reservoir17
  ID 9
  CHARACTERISTIC_CURVES Reservoir17
  POROSITY 0.11
  TORTUOSITY 1.d0
  ROCK_DENSITY 2650.d0
  THERMAL_CONDUCTIVITY_DRY 2.d0
  THERMAL_CONDUCTIVITY_WET 2.18d0
  HEAT_CAPACITY 1000 J/kg-C
  PERMEABILITY
    PERM_ISO 7.1650632e-15
  /
  SOIL_COMPRESSIBILITY_FUNCTION LINEAR
  POROSITY_COMPRESSIBILITY 5.3809001e-14
  SOIL_REFERENCE_PRESSURE 1.2d7
END

MATERIAL_PROPERTY Reservoir16
  ID 10
  CHARACTERISTIC_CURVES Reservoir16
  POROSITY 0.08
  TORTUOSITY 1.d0
  ROCK_DENSITY 2650.d0
  THERMAL_CONDUCTIVITY_DRY 2.d0
  THERMAL_CONDUCTIVITY_WET 2.18d0
  HEAT_CAPACITY 1000 J/kg-C
  PERMEABILITY
    PERM_X 3.7503085e-16
    PERM_Y 3.7503085e-16
    PERM_Z 3.7503085e-17
  /
  SOIL_COMPRESSIBILITY_FUNCTION LINEAR
  POROSITY_COMPRESSIBILITY 5.3809001e-14
  SOIL_REFERENCE_PRESSURE 1.2d7
END

MATERIAL_PROPERTY Reservoir15
  ID 11
  CHARACTERISTIC_CURVES Reservoir15
  POROSITY 0.10
  TORTUOSITY 1.d0
  ROCK_DENSITY 2650.d0
  THERMAL_CONDUCTIVITY_DRY 2.d0
  THERMAL_CONDUCTIVITY_WET 2.18d0
  HEAT_CAPACITY 1000 J/kg-C
  PERMEABILITY
    PERM_ISO 5.0234396e-15
  /
  SOIL_COMPRESSIBILITY_FUNCTION LINEAR
  POROSITY_COMPRESSIBILITY 5.3809001e-14
  SOIL_REFERENCE_PRESSURE 1.2d7
END

MATERIAL_PROPERTY Reservoir14
  ID 12
  CHARACTERISTIC_CURVES Reservoir14
  POROSITY 0.08
  TORTUOSITY 1.d0
  ROCK_DENSITY 2650.d0
  THERMAL_CONDUCTIVITY_DRY 2.d0
  THERMAL_CONDUCTIVITY_WET 2.18d0
  HEAT_CAPACITY 1000 J/kg-C
  PERMEABILITY
    PERM_ISO 1.3224772e-15
  /
  SOIL_COMPRESSIBILITY_FUNCTION LINEAR
  POROSITY_COMPRESSIBILITY 5.3809001e-14
  SOIL_REFERENCE_PRESSURE 1.2d7
END

MATERIAL_PROPERTY Reservoir13
  ID 13
  CHARACTERISTIC_CURVES Reservoir13
  POROSITY 0.10
  TORTUOSITY 1.d0
  ROCK_DENSITY 2650.d0
  THERMAL_CONDUCTIVITY_DRY 2.d0
  THERMAL_CONDUCTIVITY_WET 2.18d0
  HEAT_CAPACITY 1000 J/kg-C
  PERMEABILITY
    PERM_ISO 5.2603012e-15
  /
  SOIL_COMPRESSIBILITY_FUNCTION LINEAR
  POROSITY_COMPRESSIBILITY 5.3809001e-14
  SOIL_REFERENCE_PRESSURE 1.2d7
END

MATERIAL_PROPERTY Reservoir12
  ID 14
  CHARACTERISTIC_CURVES Reservoir12
  POROSITY 0.12
  TORTUOSITY 1.d0
  ROCK_DENSITY 2650.d0
  THERMAL_CONDUCTIVITY_DRY 2.d0
  THERMAL_CONDUCTIVITY_WET 2.18d0
  HEAT_CAPACITY 1000 J/kg-C
  PERMEABILITY
    PERM_ISO 1.569208e-14
  /
  SOIL_COMPRESSIBILITY_FUNCTION LINEAR
  POROSITY_COMPRESSIBILITY 5.3809001e-14
  SOIL_REFERENCE_PRESSURE 1.2d7
END

MATERIAL_PROPERTY Reservoir11
  ID 15
  CHARACTERISTIC_CURVES Reservoir11
  POROSITY 0.19
  TORTUOSITY 1.d0
  ROCK_DENSITY 2650.d0
  THERMAL_CONDUCTIVITY_DRY 2.d0
  THERMAL_CONDUCTIVITY_WET 2.18d0
  HEAT_CAPACITY 1000 J/kg-C
  PERMEABILITY
    PERM_ISO 2.0725389e-13
  /
  SOIL_COMPRESSIBILITY_FUNCTION LINEAR
  POROSITY_COMPRESSIBILITY 5.3809001e-14
  SOIL_REFERENCE_PRESSURE 1.2d7
END

MATERIAL_PROPERTY Reservoir10
  ID 16
  CHARACTERISTIC_CURVES Reservoir10
  POROSITY 0.12
  TORTUOSITY 1.d0
  ROCK_DENSITY 2650.d0
  THERMAL_CONDUCTIVITY_DRY 2.d0
  THERMAL_CONDUCTIVITY_WET 2.18d0
  HEAT_CAPACITY 1000 J/kg-C
  PERMEABILITY
    PERM_ISO 1.3718234e-14
  /
  SOIL_COMPRESSIBILITY_FUNCTION LINEAR
  POROSITY_COMPRESSIBILITY 5.3809001e-14
  SOIL_REFERENCE_PRESSURE 1.2d7
END

MATERIAL_PROPERTY Reservoir9
  ID 17
  CHARACTERISTIC_CURVES Reservoir9
  POROSITY 0.12
  TORTUOSITY 1.d0
  ROCK_DENSITY 2650.d0
  THERMAL_CONDUCTIVITY_DRY 2.d0
  THERMAL_CONDUCTIVITY_WET 2.18d0
  HEAT_CAPACITY 1000 J/kg-C
  PERMEABILITY
    PERM_ISO 1.3718234e-14
  /
  SOIL_COMPRESSIBILITY_FUNCTION LINEAR
  POROSITY_COMPRESSIBILITY 5.3809001e-14
  SOIL_REFERENCE_PRESSURE 1.2d7
END

MATERIAL_PROPERTY Reservoir8
  ID 18
  CHARACTERISTIC_CURVES Reservoir8
  POROSITY 0.13
  TORTUOSITY 1.d0
  ROCK_DENSITY 2650.d0
  THERMAL_CONDUCTIVITY_DRY 2.d0
  THERMAL_CONDUCTIVITY_WET 2.18d0
  HEAT_CAPACITY 1000 J/kg-C
  PERMEABILITY
    PERM_ISO 2.0725389e-14
  /
  SOIL_COMPRESSIBILITY_FUNCTION LINEAR
  POROSITY_COMPRESSIBILITY 5.3809001e-14
  SOIL_REFERENCE_PRESSURE 1.2d7
END

MATERIAL_PROPERTY Reservoir7
  ID 19
  CHARACTERISTIC_CURVES Reservoir7
  POROSITY 0.11
  TORTUOSITY 1.d0
  ROCK_DENSITY 2650.d0
  THERMAL_CONDUCTIVITY_DRY 2.d0
  THERMAL_CONDUCTIVITY_WET 2.18d0
  HEAT_CAPACITY 1000 J/kg-C
  PERMEABILITY
    PERM_ISO 6.4248707e-15
  /
  SOIL_COMPRESSIBILITY_FUNCTION LINEAR
  POROSITY_COMPRESSIBILITY 5.3809001e-14
  SOIL_REFERENCE_PRESSURE 1.2d7
END

MATERIAL_PROPERTY Reservoir6
  ID 20
  CHARACTERISTIC_CURVES Reservoir6
  POROSITY 0.09
  TORTUOSITY 1.d0
  ROCK_DENSITY 2650.d0
  THERMAL_CONDUCTIVITY_DRY 2.d0
  THERMAL_CONDUCTIVITY_WET 2.18d0
  HEAT_CAPACITY 1000 J/kg-C
  PERMEABILITY
    PERM_ISO 2.2304467e-15
  /
  SOIL_COMPRESSIBILITY_FUNCTION LINEAR
  POROSITY_COMPRESSIBILITY 5.3809001e-14
  SOIL_REFERENCE_PRESSURE 1.2d7
END

MATERIAL_PROPERTY Reservoir5
  ID 21
  CHARACTERISTIC_CURVES Reservoir5
  POROSITY 0.12
  TORTUOSITY 1.d0
  ROCK_DENSITY 2650.d0
  THERMAL_CONDUCTIVITY_DRY 2.d0
  THERMAL_CONDUCTIVITY_WET 2.18d0
  HEAT_CAPACITY 1000 J/kg-C
  PERMEABILITY
    PERM_ISO 1.7764619e-16
  /
  SOIL_COMPRESSIBILITY_FUNCTION LINEAR
  POROSITY_COMPRESSIBILITY 5.3809001e-14
  SOIL_REFERENCE_PRESSURE 1.2d7
END

MATERIAL_PROPERTY Reservoir4
  ID 22
  CHARACTERISTIC_CURVES Reservoir4
  POROSITY 0.12
  TORTUOSITY 1.d0
  ROCK_DENSITY 2650.d0
  THERMAL_CONDUCTIVITY_DRY 2.d0
  THERMAL_CONDUCTIVITY_WET 2.18d0
  HEAT_CAPACITY 1000 J/kg-C
  PERMEABILITY
    PERM_ISO 4.6878857e-17
  /
  SOIL_COMPRESSIBILITY_FUNCTION LINEAR
  POROSITY_COMPRESSIBILITY 5.3809001e-14
  SOIL_REFERENCE_PRESSURE 1.2d7
END

MATERIAL_PROPERTY Reservoir3
  ID 23
  CHARACTERISTIC_CURVES Reservoir3
  POROSITY 0.15
  TORTUOSITY 1.d0
  ROCK_DENSITY 2650.d0
  THERMAL_CONDUCTIVITY_DRY 2.d0
  THERMAL_CONDUCTIVITY_WET 2.18d0
  HEAT_CAPACITY 1000 J/kg-C
  PERMEABILITY
    PERM_ISO 1.2336541e-14
  /
  SOIL_COMPRESSIBILITY_FUNCTION LINEAR
  POROSITY_COMPRESSIBILITY 5.3809001e-14
  SOIL_REFERENCE_PRESSURE 1.2d7
END

MATERIAL_PROPERTY Reservoir2
  ID 24
  CHARACTERISTIC_CURVES Reservoir2
  POROSITY 0.11
  TORTUOSITY 1.d0
  ROCK_DENSITY 2650.d0
  THERMAL_CONDUCTIVITY_DRY 2.d0
  THERMAL_CONDUCTIVITY_WET 2.18d0
  HEAT_CAPACITY 1000 J/kg-C
  PERMEABILITY
    PERM_ISO 2.8324699e-15
  /
  SOIL_COMPRESSIBILITY_FUNCTION LINEAR
  POROSITY_COMPRESSIBILITY 5.3809001e-14
  SOIL_REFERENCE_PRESSURE 1.2d7
END

MATERIAL_PROPERTY Reservoir1
  ID 25
  CHARACTERISTIC_CURVES Reservoir1
  POROSITY 0.11
  TORTUOSITY 1.d0
  ROCK_DENSITY 2650.d0
  THERMAL_CONDUCTIVITY_DRY 2.d0
  THERMAL_CONDUCTIVITY_WET 2.18d0
  HEAT_CAPACITY 1000 J/kg-C
  PERMEABILITY
    PERM_ISO 2.8324699e-15
  /
  SOIL_COMPRESSIBILITY_FUNCTION LINEAR
  POROSITY_COMPRESSIBILITY 5.3809001e-14
  SOIL_REFERENCE_PRESSURE 1.2d7
END

#=========================== characteristic curves ============================

CHARACTERISTIC_CURVES caprock
  SATURATION_FUNCTION BROOKS_COREY
    MAX_TRAPPED_GAS_SAT 0.2
    UNSATURATED_EXTENSION
    ALPHA 0.00001020408
    LAMBDA 0.8311
    LIQUID_RESIDUAL_SATURATION 0.0597
    MAX_CAPILLARY_PRESSURE 5.d9
  /
  PERMEABILITY_FUNCTION BURDINE_BC_LIQ
    PHASE LIQUID
    LAMBDA 0.8311
    LIQUID_RESIDUAL_SATURATION 0.0597
  /
  PERMEABILITY_FUNCTION BURDINE_BC_GAS
    PHASE GAS
    LAMBDA 0.8311
    LIQUID_RESIDUAL_SATURATION 0.0597
    GAS_RESIDUAL_SATURATION 0.0
  /
END

CHARACTERISTIC_CURVES Reservoir24
  SATURATION_FUNCTION BROOKS_COREY
    MAX_TRAPPED_GAS_SAT 0.2
    UNSATURATED_EXTENSION
    ALPHA 0.00008503401
    LAMBDA 0.8311
    LIQUID_RESIDUAL_SATURATION 0.0597
    MAX_CAPILLARY_PRESSURE 5.d9
  /
  PERMEABILITY_FUNCTION BURDINE_BC_LIQ
    PHASE LIQUID
    LAMBDA 0.8311
    LIQUID_RESIDUAL_SATURATION 0.0597
  /
  PERMEABILITY_FUNCTION BURDINE_BC_GAS
    PHASE GAS
    LAMBDA 0.8311
    LIQUID_RESIDUAL_SATURATION 0.0597
    GAS_RESIDUAL_SATURATION 0.0
  /
END

CHARACTERISTIC_CURVES Reservoir23
  SATURATION_FUNCTION BROOKS_COREY
    MAX_TRAPPED_GAS_SAT 0.2
    UNSATURATED_EXTENSION
    ALPHA 0.00020408163
    LAMBDA 0.6215
    LIQUID_RESIDUAL_SATURATION 0.0810
    MAX_CAPILLARY_PRESSURE 5.d9
  /
  PERMEABILITY_FUNCTION BURDINE_BC_LIQ
    PHASE LIQUID
    LAMBDA 0.6215
    LIQUID_RESIDUAL_SATURATION 0.0810
  /
  PERMEABILITY_FUNCTION BURDINE_BC_GAS
    PHASE GAS
    LAMBDA 0.6215
    LIQUID_RESIDUAL_SATURATION 0.0810
    GAS_RESIDUAL_SATURATION 0.0
  /
END

CHARACTERISTIC_CURVES Reservoir22
  SATURATION_FUNCTION BROOKS_COREY
    MAX_TRAPPED_GAS_SAT 0.2
    UNSATURATED_EXTENSION
    ALPHA 0.00002834467
    LAMBDA 0.8311
    LIQUID_RESIDUAL_SATURATION 0.0597
    MAX_CAPILLARY_PRESSURE 5.d9
  /
  PERMEABILITY_FUNCTION BURDINE_BC_LIQ
    PHASE LIQUID
    LAMBDA 0.8311
    LIQUID_RESIDUAL_SATURATION 0.0597
  /
  PERMEABILITY_FUNCTION BURDINE_BC_GAS
    PHASE GAS
    LAMBDA 0.8311
    LIQUID_RESIDUAL_SATURATION 0.0597
    GAS_RESIDUAL_SATURATION 0.0
  /
END

CHARACTERISTIC_CURVES Reservoir21
  SATURATION_FUNCTION BROOKS_COREY
    MAX_TRAPPED_GAS_SAT 0.2
    UNSATURATED_EXTENSION
    ALPHA 0.0000510204
    LAMBDA 0.8311
    LIQUID_RESIDUAL_SATURATION 0.0597
    MAX_CAPILLARY_PRESSURE 5.d9
  /
  PERMEABILITY_FUNCTION BURDINE_BC_LIQ
    PHASE LIQUID
    LAMBDA 0.8311
    LIQUID_RESIDUAL_SATURATION 0.0597
  /
  PERMEABILITY_FUNCTION BURDINE_BC_GAS
    PHASE GAS
    LAMBDA 0.8311
    LIQUID_RESIDUAL_SATURATION 0.0597
    GAS_RESIDUAL_SATURATION 0.0
  /
END

CHARACTERISTIC_CURVES Reservoir20
  SATURATION_FUNCTION BROOKS_COREY
    MAX_TRAPPED_GAS_SAT 0.2
    UNSATURATED_EXTENSION
    ALPHA 0.00002040816
    LAMBDA 0.8311
    LIQUID_RESIDUAL_SATURATION 0.0597
    MAX_CAPILLARY_PRESSURE 5.d9
  /
  PERMEABILITY_FUNCTION BURDINE_BC_LIQ
    PHASE LIQUID
    LAMBDA 0.8311
    LIQUID_RESIDUAL_SATURATION 0.0597
  /
  PERMEABILITY_FUNCTION BURDINE_BC_GAS
    PHASE GAS
    LAMBDA 0.8311
    LIQUID_RESIDUAL_SATURATION 0.0597
    GAS_RESIDUAL_SATURATION 0.0
  /
END

CHARACTERISTIC_CURVES Reservoir19
  SATURATION_FUNCTION BROOKS_COREY
    MAX_TRAPPED_GAS_SAT 0.2
    UNSATURATED_EXTENSION
    ALPHA 0.00007849293
    LAMBDA 0.8311
    LIQUID_RESIDUAL_SATURATION 0.0597
    MAX_CAPILLARY_PRESSURE 5.d9
  /
  PERMEABILITY_FUNCTION BURDINE_BC_LIQ
    PHASE LIQUID
    LAMBDA 0.8311
    LIQUID_RESIDUAL_SATURATION 0.0597
  /
  PERMEABILITY_FUNCTION BURDINE_BC_GAS
    PHASE GAS
    LAMBDA 0.8311
    LIQUID_RESIDUAL_SATURATION 0.0597
    GAS_RESIDUAL_SATURATION 0.0
  /
END

CHARACTERISTIC_CURVES Reservoir18
  SATURATION_FUNCTION BROOKS_COREY
    MAX_TRAPPED_GAS_SAT 0.2
    UNSATURATED_EXTENSION
    ALPHA 0.00001478852
    LAMBDA 0.8311
    LIQUID_RESIDUAL_SATURATION 0.0597
    MAX_CAPILLARY_PRESSURE 5.d9
  /
  PERMEABILITY_FUNCTION BURDINE_BC_LIQ
    PHASE LIQUID
    LAMBDA 0.8311
    LIQUID_RESIDUAL_SATURATION 0.0597
  /
  PERMEABILITY_FUNCTION BURDINE_BC_GAS
    PHASE GAS
    LAMBDA 0.8311
    LIQUID_RESIDUAL_SATURATION 0.0597
    GAS_RESIDUAL_SATURATION 0.0
  /
END

CHARACTERISTIC_CURVES Reservoir17
  SATURATION_FUNCTION BROOKS_COREY
    MAX_TRAPPED_GAS_SAT 0.2
    UNSATURATED_EXTENSION
    ALPHA 0.000060024
    LAMBDA 0.8311
    LIQUID_RESIDUAL_SATURATION 0.0597
    MAX_CAPILLARY_PRESSURE 5.d9
  /
  PERMEABILITY_FUNCTION BURDINE_BC_LIQ
    PHASE LIQUID
    LAMBDA 0.8311
    LIQUID_RESIDUAL_SATURATION 0.0597
  /
  PERMEABILITY_FUNCTION BURDINE_BC_GAS
    PHASE GAS
    LAMBDA 0.8311
    LIQUID_RESIDUAL_SATURATION 0.0597
    GAS_RESIDUAL_SATURATION 0.0
  /
END

CHARACTERISTIC_CURVES Reservoir16
  SATURATION_FUNCTION BROOKS_COREY
    MAX_TRAPPED_GAS_SAT 0.2
    UNSATURATED_EXTENSION
    ALPHA 0.00001645819
    LAMBDA 0.8311
    LIQUID_RESIDUAL_SATURATION 0.0597
    MAX_CAPILLARY_PRESSURE 5.d9
  /
  PERMEABILITY_FUNCTION BURDINE_BC_LIQ
    PHASE LIQUID
    LAMBDA 0.8311
    LIQUID_RESIDUAL_SATURATION 0.0597
  /
  PERMEABILITY_FUNCTION BURDINE_BC_GAS
    PHASE GAS
    LAMBDA 0.8311
    LIQUID_RESIDUAL_SATURATION 0.0597
    GAS_RESIDUAL_SATURATION 0.0 
  /
END

CHARACTERISTIC_CURVES Reservoir15
  SATURATION_FUNCTION BROOKS_COREY
    MAX_TRAPPED_GAS_SAT 0.2
    UNSATURATED_EXTENSION
    ALPHA 0.00005370569
    LAMBDA 0.8311
    LIQUID_RESIDUAL_SATURATION 0.0597
    MAX_CAPILLARY_PRESSURE 5.d9
  /
  PERMEABILITY_FUNCTION BURDINE_BC_LIQ
    PHASE LIQUID
    LAMBDA 0.8311
    LIQUID_RESIDUAL_SATURATION 0.0597
  /
  PERMEABILITY_FUNCTION BURDINE_BC_GAS
    PHASE GAS
    LAMBDA 0.8311
    LIQUID_RESIDUAL_SATURATION 0.0597
    GAS_RESIDUAL_SATURATION 0.0
  /
END

CHARACTERISTIC_CURVES Reservoir14
  SATURATION_FUNCTION BROOKS_COREY
    MAX_TRAPPED_GAS_SAT 0.2
    UNSATURATED_EXTENSION
    ALPHA 0.00003291639
    LAMBDA 0.8311
    LIQUID_RESIDUAL_SATURATION 0.0597
    MAX_CAPILLARY_PRESSURE 5.d9
  /
  PERMEABILITY_FUNCTION BURDINE_BC_LIQ
    PHASE LIQUID
    LAMBDA 0.8311
    LIQUID_RESIDUAL_SATURATION 0.0597
  /
  PERMEABILITY_FUNCTION BURDINE_BC_GAS
    PHASE GAS
    LAMBDA 0.8311
    LIQUID_RESIDUAL_SATURATION 0.0597
    GAS_RESIDUAL_SATURATION 0.0
  /
END

CHARACTERISTIC_CURVES Reservoir13
  SATURATION_FUNCTION BROOKS_COREY
    MAX_TRAPPED_GAS_SAT 0.2
    UNSATURATED_EXTENSION
    ALPHA 0.00005370569
    LAMBDA 0.8311
    LIQUID_RESIDUAL_SATURATION 0.0597
    MAX_CAPILLARY_PRESSURE 5.d9
  /
  PERMEABILITY_FUNCTION BURDINE_BC_LIQ
    PHASE LIQUID
    LAMBDA 0.8311
    LIQUID_RESIDUAL_SATURATION 0.0597
  /
  PERMEABILITY_FUNCTION BURDINE_BC_GAS
    PHASE GAS
    LAMBDA 0.8311
    LIQUID_RESIDUAL_SATURATION 0.0597
    GAS_RESIDUAL_SATURATION 0.0
  /
END

CHARACTERISTIC_CURVES Reservoir12
  SATURATION_FUNCTION BROOKS_COREY
    MAX_TRAPPED_GAS_SAT 0.2
    UNSATURATED_EXTENSION
    ALPHA 0.00008503401
    LAMBDA 0.8311
    LIQUID_RESIDUAL_SATURATION 0.0597
    MAX_CAPILLARY_PRESSURE 5.d9
  /
  PERMEABILITY_FUNCTION BURDINE_BC_LIQ
    PHASE LIQUID
    LAMBDA 0.8311
    LIQUID_RESIDUAL_SATURATION 0.0597
  /
  PERMEABILITY_FUNCTION BURDINE_BC_GAS
    PHASE GAS
    LAMBDA 0.8311
    LIQUID_RESIDUAL_SATURATION 0.0597
    GAS_RESIDUAL_SATURATION 0.0
  /
END

CHARACTERISTIC_CURVES Reservoir11
  SATURATION_FUNCTION BROOKS_COREY
    MAX_TRAPPED_GAS_SAT 0.2
    UNSATURATED_EXTENSION
    ALPHA 0.00025510204
    LAMBDA 1.1663
    LIQUID_RESIDUAL_SATURATION 0.0708
    MAX_CAPILLARY_PRESSURE 5.d9
  /
  PERMEABILITY_FUNCTION BURDINE_BC_LIQ
    PHASE LIQUID
    LAMBDA 1.1663
    LIQUID_RESIDUAL_SATURATION 0.0708
  /
  PERMEABILITY_FUNCTION BURDINE_BC_GAS
    PHASE GAS
    LAMBDA 1.1663
    LIQUID_RESIDUAL_SATURATION 0.0708
    GAS_RESIDUAL_SATURATION 0.0 #0.0708
  /
END

CHARACTERISTIC_CURVES Reservoir10
  SATURATION_FUNCTION BROOKS_COREY
    MAX_TRAPPED_GAS_SAT 0.2
    UNSATURATED_EXTENSION
    ALPHA 0.00007849293
    LAMBDA 0.8311
    LIQUID_RESIDUAL_SATURATION 0.0597
    MAX_CAPILLARY_PRESSURE 5.d9
  /
  PERMEABILITY_FUNCTION BURDINE_BC_LIQ
    PHASE LIQUID
    LAMBDA 0.8311
    LIQUID_RESIDUAL_SATURATION 0.0597
  /
  PERMEABILITY_FUNCTION BURDINE_BC_GAS
    PHASE GAS
    LAMBDA 0.8311
    LIQUID_RESIDUAL_SATURATION 0.0597
    GAS_RESIDUAL_SATURATION 0.0
  /
END

CHARACTERISTIC_CURVES Reservoir9
  SATURATION_FUNCTION BROOKS_COREY
    MAX_TRAPPED_GAS_SAT 0.2
    UNSATURATED_EXTENSION
    ALPHA 0.00007849293
    LAMBDA 0.8311
    LIQUID_RESIDUAL_SATURATION 0.0597
    MAX_CAPILLARY_PRESSURE 5.d9
  /
  PERMEABILITY_FUNCTION BURDINE_BC_LIQ
    PHASE LIQUID
    LAMBDA 0.8311
    LIQUID_RESIDUAL_SATURATION 0.0597
  /
  PERMEABILITY_FUNCTION BURDINE_BC_GAS
    PHASE GAS
    LAMBDA 0.8311
    LIQUID_RESIDUAL_SATURATION 0.0597
    GAS_RESIDUAL_SATURATION 0.0
  /
END

CHARACTERISTIC_CURVES Reservoir8
  SATURATION_FUNCTION BROOKS_COREY
    MAX_TRAPPED_GAS_SAT 0.2
    UNSATURATED_EXTENSION
    ALPHA 0.00009276437
    LAMBDA 0.8311
    LIQUID_RESIDUAL_SATURATION 0.0597
    MAX_CAPILLARY_PRESSURE 5.d9
  /
  PERMEABILITY_FUNCTION BURDINE_BC_LIQ
    PHASE LIQUID
    LAMBDA 0.8311
    LIQUID_RESIDUAL_SATURATION 0.0597
  /
  PERMEABILITY_FUNCTION BURDINE_BC_GAS
    PHASE GAS
    LAMBDA 0.8311
    LIQUID_RESIDUAL_SATURATION 0.0597
    GAS_RESIDUAL_SATURATION 0.0
  /
END

CHARACTERISTIC_CURVES Reservoir7
  SATURATION_FUNCTION BROOKS_COREY
    MAX_TRAPPED_GAS_SAT 0.2
    UNSATURATED_EXTENSION
    ALPHA 0.000060024
    LAMBDA 0.8311
    LIQUID_RESIDUAL_SATURATION 0.0597
    MAX_CAPILLARY_PRESSURE 5.d9
  /
  PERMEABILITY_FUNCTION BURDINE_BC_LIQ
    PHASE LIQUID
    LAMBDA 0.8311
    LIQUID_RESIDUAL_SATURATION 0.0597
  /
  PERMEABILITY_FUNCTION BURDINE_BC_GAS
    PHASE GAS
    LAMBDA 0.8311
    LIQUID_RESIDUAL_SATURATION 0.0597
    GAS_RESIDUAL_SATURATION 0.0
  /
END

CHARACTERISTIC_CURVES Reservoir6
  SATURATION_FUNCTION BROOKS_COREY
    MAX_TRAPPED_GAS_SAT 0.2
    UNSATURATED_EXTENSION
    ALPHA 0.00003924646
    LAMBDA 0.8311
    LIQUID_RESIDUAL_SATURATION 0.0597
    MAX_CAPILLARY_PRESSURE 5.d9
  /
  PERMEABILITY_FUNCTION BURDINE_BC_LIQ
    PHASE LIQUID
    LAMBDA 0.8311
    LIQUID_RESIDUAL_SATURATION 0.0597
  /
  PERMEABILITY_FUNCTION BURDINE_BC_GAS
    PHASE GAS
    LAMBDA 0.8311
    LIQUID_RESIDUAL_SATURATION 0.0597
    GAS_RESIDUAL_SATURATION 0.0
  /
END

CHARACTERISTIC_CURVES Reservoir5
  SATURATION_FUNCTION BROOKS_COREY
    MAX_TRAPPED_GAS_SAT 0.2
    UNSATURATED_EXTENSION
    ALPHA 0.00001569858
    LAMBDA 0.8311
    LIQUID_RESIDUAL_SATURATION 0.0597
    MAX_CAPILLARY_PRESSURE 5.d9
  /
  PERMEABILITY_FUNCTION BURDINE_BC_LIQ
    PHASE LIQUID
    LAMBDA 0.8311
    LIQUID_RESIDUAL_SATURATION 0.0597
  /
  PERMEABILITY_FUNCTION BURDINE_BC_GAS
    PHASE GAS
    LAMBDA 0.8311
    LIQUID_RESIDUAL_SATURATION 0.0597
    GAS_RESIDUAL_SATURATION 0.0
  /
END

CHARACTERISTIC_CURVES Reservoir4
  SATURATION_FUNCTION BROOKS_COREY
    MAX_TRAPPED_GAS_SAT 0.2
    UNSATURATED_EXTENSION
    ALPHA 0.00000953652
    LAMBDA 0.8311
    LIQUID_RESIDUAL_SATURATION 0.0597
    MAX_CAPILLARY_PRESSURE 5.d9
  /
  PERMEABILITY_FUNCTION BURDINE_BC_LIQ
    PHASE LIQUID
    LAMBDA 0.8311
    LIQUID_RESIDUAL_SATURATION 0.0597
  /
  PERMEABILITY_FUNCTION BURDINE_BC_GAS
    PHASE GAS
    LAMBDA 0.8311
    LIQUID_RESIDUAL_SATURATION 0.0597
    GAS_RESIDUAL_SATURATION 0.0
  /
END

CHARACTERISTIC_CURVES Reservoir3
  SATURATION_FUNCTION BROOKS_COREY
    MAX_TRAPPED_GAS_SAT 0.2
    UNSATURATED_EXTENSION
    ALPHA 0.00007288629
    LAMBDA 0.8311
    LIQUID_RESIDUAL_SATURATION 0.0597
    MAX_CAPILLARY_PRESSURE 5.d9
  /
  PERMEABILITY_FUNCTION BURDINE_BC_LIQ
    PHASE LIQUID
    LAMBDA 0.8311
    LIQUID_RESIDUAL_SATURATION 0.0597
  /
  PERMEABILITY_FUNCTION BURDINE_BC_GAS
    PHASE GAS
    LAMBDA 0.8311
    LIQUID_RESIDUAL_SATURATION 0.0597
    GAS_RESIDUAL_SATURATION 0.0
  /
END

CHARACTERISTIC_CURVES Reservoir2
  SATURATION_FUNCTION BROOKS_COREY
    MAX_TRAPPED_GAS_SAT 0.2
    UNSATURATED_EXTENSION
    ALPHA 0.00004436557
    LAMBDA 0.8311
    LIQUID_RESIDUAL_SATURATION 0.0597
    MAX_CAPILLARY_PRESSURE 5.d9
  /
  PERMEABILITY_FUNCTION BURDINE_BC_LIQ
    PHASE LIQUID
    LAMBDA 0.8311
    LIQUID_RESIDUAL_SATURATION 0.0597
  /
  PERMEABILITY_FUNCTION BURDINE_BC_GAS
    PHASE GAS
    LAMBDA 0.8311
    LIQUID_RESIDUAL_SATURATION 0.0597
    GAS_RESIDUAL_SATURATION 0.0
  /
END

CHARACTERISTIC_CURVES Reservoir1
  SATURATION_FUNCTION BROOKS_COREY
    MAX_TRAPPED_GAS_SAT 0.2
    UNSATURATED_EXTENSION
    ALPHA 0.00004436557
    LAMBDA 0.8311
    LIQUID_RESIDUAL_SATURATION 0.0597
    MAX_CAPILLARY_PRESSURE 5.d9
  /
  PERMEABILITY_FUNCTION BURDINE_BC_LIQ
    PHASE LIQUID
    LAMBDA 0.8311
    LIQUID_RESIDUAL_SATURATION 0.0597
  /
  PERMEABILITY_FUNCTION BURDINE_BC_GAS
    PHASE GAS
    LAMBDA 0.8311
    LIQUID_RESIDUAL_SATURATION 0.0597
    GAS_RESIDUAL_SATURATION 0.0
  /
END


#=========================== output options ===================================
OUTPUT
  SNAPSHOT_FILE
    TIMES y 1.d-2 1.d-1 1.d0
    PERIODIC TIME 1.d0 y
    FORMAT HDF5
  /
  UNFILTER_NON_STATE_VARIABLES

  VARIABLES
   TEMPERATURE
   LIQUID_PRESSURE
   GAS_PRESSURE
   LIQUID_SATURATION
   GAS_SATURATION
   PRECIPITATE_SATURATION
   TRAPPED_GAS_SATURATION
   LIQUID_MASS_FRACTIONS
   GAS_MASS_FRACTIONS
   GAS_DENSITY
   PERMEABILITY
   LIQUID_RELATIVE_PERMEABILITY
   GAS_RELATIVE_PERMEABILITY
   POROSITY
   VOLUME
   THERMODYNAMIC_STATE
  /
END

#=========================== times ============================================
TIME
  FINAL_TIME 1.d1 y
  INITIAL_TIMESTEP_SIZE 1.d-5 y
  MAXIMUM_TIMESTEP_SIZE 5.d-1 y
END


#=========================== regions ==========================================
REGION all
  COORDINATES
    0.d0    0.d0 -1157.935d0
    3048.d0 1.d0 -965.9112d0
  /
END

REGION edge
  FACE EAST
  COORDINATES
    3048.d0 0.d0  -1157.935d0
    3048.d0 1.d0  -965.9112d0
  /
END

REGION injection
  COORDINATES
   0.0d0 0.d0 -1157.935d0
   0.0d0 0.d0 -981.1512d0
  /
END

REGION caprock
  BLOCK 1 20 1 1 25 25
END

REGION Reservoir24
  BLOCK 1 20 1 1 24 24
END

REGION Reservoir23
  BLOCK 1 20 1 1 23 23
END

REGION Reservoir22
  BLOCK 1 20 1 1 22 22
END

REGION Reservoir21
  BLOCK 1 20 1 1 21 21
END

REGION Reservoir20
  BLOCK 1 20 1 1 20 20
END

REGION Reservoir19
  BLOCK 1 20 1 1 19 19
END

REGION Reservoir18
  BLOCK 1 20 1 1 18 18
END

REGION Reservoir17
  BLOCK 1 20 1 1 17 17
END

REGION Reservoir16
  BLOCK 1 20 1 1 16 16
END

REGION Reservoir15
  BLOCK 1 20 1 1 15 15
END

REGION Reservoir14
  BLOCK 1 20 1 1 14 14
END

REGION Reservoir13
  BLOCK 1 20 1 1 13 13
END

REGION Reservoir12
  BLOCK 1 20 1 1 12 12
END

REGION Reservoir11
  BLOCK 1 20 1 1 11 11
END

REGION Reservoir10
  BLOCK 1 20 1 1 10 10
END

REGION Reservoir9
  BLOCK 1 20 1 1 9 9
END

REGION Reservoir8
  BLOCK 1 20 1 1 8 8
END

REGION Reservoir7
  BLOCK 1 20 1 1 7 7
END

REGION Reservoir6
  BLOCK 1 20 1 1 6 6
END

REGION Reservoir5
  BLOCK 1 20 1 1 5 5
END

REGION Reservoir4
  BLOCK 1 20 1 1 4 4
END

REGION Reservoir3
  BLOCK 1 20 1 1 3 3
END

REGION Reservoir2
  BLOCK 1 20 1 1 2 2
END

REGION Reservoir1
  BLOCK 1 20 1 1 1 1
END

#=========================== flow conditions ==================================

FLOW_CONDITION initial
  TYPE
    LIQUID_PRESSURE HYDROSTATIC
    CO2_MASS_FRACTION DIRICHLET
    SALT_MASS_FRACTION DIRICHLET
    TEMPERATURE DIRICHLET
  /
  DATUM 0.d0 0.d0 -1040.892d0
  GRADIENT
    TEMPERATURE 0.d0 0.d0 -0.02004957713
  /
  LIQUID_PRESSURE 1.234333924d7
  CO2_MASS_FRACTION 0.d0
  SALT_MASS_FRACTION 4.75d-2
  TEMPERATURE 43.74666667
END

FLOW_CONDITION injection
  SYNC_TIMESTEP_WITH_UPDATE
  TYPE
    RATE MASS_RATE
  /
  RATE LIST
    TIME_UNITS y
    DATA_UNITS kg/y kg/y kg/y MW
    0.d0 0.d0 1.d9 0.d0 0.d0
    2.d0 0.d0 0.d0 0.d0 0.d0
  /
END

#=========================== condition couplers ===============================
# initial condition
INITIAL_CONDITION all
  FLOW_CONDITION initial
  REGION all
END

WELL_COUPLER injection
  FLOW_CONDITION injection
  WELL well1
END

BOUNDARY_CONDITION edge
  FLOW_CONDITION initial
  REGION edge
END

#=========================== stratigraphy couplers ============================
STRATA
  REGION all
  MATERIAL caprock
  WELL
END

STRATA
  REGION caprock
  MATERIAL caprock
END

STRATA
  REGION Reservoir24
  MATERIAL Reservoir24
END

STRATA
  REGION Reservoir23
  MATERIAL Reservoir23
END

STRATA
  REGION Reservoir22
  MATERIAL Reservoir22
END

STRATA
  REGION Reservoir21
  MATERIAL Reservoir21
END

STRATA
  REGION Reservoir20
  MATERIAL Reservoir20
END

STRATA
  REGION Reservoir19
  MATERIAL Reservoir19
END

STRATA
  REGION Reservoir18
  MATERIAL Reservoir18
END

STRATA
  REGION Reservoir17
  MATERIAL Reservoir17
END

STRATA
  REGION Reservoir16
  MATERIAL Reservoir16
END

STRATA
  REGION Reservoir15
  MATERIAL Reservoir15
END

STRATA
  REGION Reservoir14
  MATERIAL Reservoir14
END

STRATA
  REGION Reservoir13
  MATERIAL Reservoir13
END

STRATA
  REGION Reservoir12
  MATERIAL Reservoir12
END

STRATA
  REGION Reservoir11
  MATERIAL Reservoir11
END

STRATA
  REGION Reservoir10
  MATERIAL Reservoir10
END

STRATA
  REGION Reservoir9
  MATERIAL Reservoir9
END

STRATA
  REGION Reservoir8
  MATERIAL Reservoir8
END

STRATA
  REGION Reservoir7
  MATERIAL Reservoir7
END

STRATA
  REGION Reservoir6
  MATERIAL Reservoir6
END

STRATA
  REGION Reservoir5
  MATERIAL Reservoir5
END

STRATA
  REGION Reservoir4
  MATERIAL Reservoir4
END

STRATA
  REGION Reservoir3
  MATERIAL Reservoir3
END

STRATA
  REGION Reservoir2
  MATERIAL Reservoir2
END

STRATA
  REGION Reservoir1
  MATERIAL Reservoir1
END

#=========================== convergence criteria  ============================
END_SUBSURFACE
